<?xml version="1.0" encoding="UTF-8"?>

<!-- generated on 2026-02-12T18:30:46.855776+05:00 by Eclipse SUMO netedit 1.25.0
<neteditConfiguration xmlns:xsi="http://www.w3.org/2001/XMLSchema-instance" xsi:noNamespaceSchemaLocation="http://sumo.dlr.de/xsd/neteditConfiguration.xsd">

    <input>
        <sumo-net-file value="D:\StudyFiles\DiplomaMap1\map.net.xml"/>
    </input>

    <output>
        <output-file value="D:\StudyFiles\DiplomaMap1\map.net.xml"/>
    </output>

    <processing>
        <geometry.min-radius.fix.railways value="false"/>
        <geometry.avoid-overlap value="false"/>
        <geometry.max-grade.fix value="false"/>
        <offset.disable-normalization value="true"/>
        <lefthand value="0"/>
    </processing>

    <junctions>
        <no-turnarounds value="true"/>
        <junctions.corner-detail value="5"/>
        <junctions.limit-turn-speed value="5.50"/>
        <rectangular-lane-cut value="0"/>
    </junctions>

    <pedestrian>
        <walkingareas value="0"/>
    </pedestrian>

</neteditConfiguration>
-->

<net version="1.20" junctionCornerDetail="5" limitTurnSpeed="5.50" avoidOverlap="0" xmlns:xsi="http://www.w3.org/2001/XMLSchema-instance" xsi:noNamespaceSchemaLocation="http://sumo.dlr.de/xsd/net_file.xsd">

    <location netOffset="-648941.09,-4786390.74" convBoundary="0.00,0.00,8870.88,6387.08" origBoundary="76.833715,43.215569,76.950747,43.271289" projParameter="+proj=utm +zone=43 +ellps=WGS84 +datum=WGS84 +units=m +no_defs"/>

    <type id="highway.cycleway" priority="1" numLanes="1" speed="5.56" allow="bicycle" oneway="0" width="2.00"/>
    <type id="highway.residential" priority="3" numLanes="1" speed="13.89" disallow="tram rail_urban rail rail_electric rail_fast ship container cable_car subway aircraft wheelchair scooter drone" oneway="0"/>
    <type id="highway.secondary" priority="11" numLanes="1" speed="27.78" disallow="tram rail_urban rail rail_electric rail_fast ship container cable_car subway aircraft wheelchair scooter drone" oneway="0"/>
    <type id="highway.secondary_link" priority="6" numLanes="1" speed="22.22" disallow="tram rail_urban rail rail_electric rail_fast ship container cable_car subway aircraft wheelchair scooter drone" oneway="0"/>
    <type id="highway.service" priority="1" numLanes="1" speed="5.56" allow="pedestrian delivery bicycle" oneway="0"/>
    <type id="highway.tertiary" priority="10" numLanes="1" speed="22.22" disallow="tram rail_urban rail rail_electric rail_fast ship container cable_car subway aircraft wheelchair scooter drone" oneway="0"/>

    <edge id=":10075450033_0" function="internal">
        <lane id=":10075450033_0_0" index="0" disallow="tram rail_urban rail rail_electric rail_fast ship container cable_car subway aircraft wheelchair scooter drone" speed="27.78" length="0.27" shape="8122.31,2969.33 8122.29,2969.59"/>
        <lane id=":10075450033_0_1" index="1" disallow="tram rail_urban rail rail_electric rail_fast ship container cable_car subway aircraft wheelchair scooter drone" speed="27.78" length="0.27" shape="8119.13,2969.01 8119.10,2969.28"/>
    </edge>
    <edge id=":10075450033_2" function="internal">
        <lane id=":10075450033_2_0" index="0" disallow="tram rail_urban rail rail_electric rail_fast ship container cable_car subway aircraft wheelchair scooter drone" speed="27.78" length="0.32" shape="8109.54,2968.38 8109.57,2968.05"/>
        <lane id=":10075450033_2_1" index="1" disallow="tram rail_urban rail rail_electric rail_fast ship container cable_car subway aircraft wheelchair scooter drone" speed="27.78" length="0.32" shape="8112.73,2968.68 8112.76,2968.37"/>
        <lane id=":10075450033_2_2" index="2" disallow="tram rail_urban rail rail_electric rail_fast ship container cable_car subway aircraft wheelchair scooter drone" speed="27.78" length="0.32" shape="8115.91,2968.98 8115.94,2968.69"/>
    </edge>
    <edge id=":10994388452_0" function="internal">
        <lane id=":10994388452_0_0" index="0" disallow="tram rail_urban rail rail_electric rail_fast ship container cable_car subway aircraft wheelchair scooter drone" speed="27.78" length="0.30" shape="7554.15,2959.20 7554.12,2959.49"/>
        <lane id=":10994388452_0_1" index="1" disallow="tram rail_urban rail rail_electric rail_fast ship container cable_car subway aircraft wheelchair scooter drone" speed="27.78" length="0.30" shape="7550.97,2958.82 7550.94,2959.11"/>
        <lane id=":10994388452_0_2" index="2" disallow="tram rail_urban rail rail_electric rail_fast ship container cable_car subway aircraft wheelchair scooter drone" speed="27.78" length="0.30" shape="7547.80,2958.44 7547.76,2958.74"/>
    </edge>
    <edge id=":10994388452_3" function="internal">
        <lane id=":10994388452_3_0" index="0" disallow="tram rail_urban rail rail_electric rail_fast ship container cable_car subway aircraft wheelchair scooter drone" speed="27.78" length="0.30" shape="7541.41,2957.99 7541.44,2957.68"/>
        <lane id=":10994388452_3_1" index="1" disallow="tram rail_urban rail rail_electric rail_fast ship container cable_car subway aircraft wheelchair scooter drone" speed="27.78" length="0.30" shape="7544.58,2958.36 7544.62,2958.06"/>
    </edge>
    <edge id=":11133373448_0" function="internal">
        <lane id=":11133373448_0_0" index="0" disallow="tram rail_urban rail rail_electric rail_fast ship container cable_car subway aircraft wheelchair scooter drone" speed="16.67" length="0.30" shape="7743.47,3030.95 7743.18,3030.92"/>
        <lane id=":11133373448_0_1" index="1" disallow="tram rail_urban rail rail_electric rail_fast ship container cable_car subway aircraft wheelchair scooter drone" speed="16.67" length="0.30" shape="7743.84,3027.78 7743.55,3027.74"/>
        <lane id=":11133373448_0_2" index="2" disallow="tram rail_urban rail rail_electric rail_fast ship container cable_car subway aircraft wheelchair scooter drone" speed="16.67" length="0.30" shape="7744.21,3024.60 7743.92,3024.56"/>
        <lane id=":11133373448_0_3" index="3" disallow="tram rail_urban rail rail_electric rail_fast ship container cable_car subway aircraft wheelchair scooter drone" speed="16.67" length="0.30" shape="7744.59,3021.42 7744.28,3021.38"/>
    </edge>
    <edge id=":11133373457_0" function="internal">
        <lane id=":11133373457_0_0" index="0" disallow="tram rail_urban rail rail_electric rail_fast ship container cable_car subway aircraft wheelchair scooter drone" speed="27.78" length="0.10" shape="7539.43,3057.25 7539.43,3057.25"/>
        <lane id=":11133373457_0_1" index="1" disallow="tram rail_urban rail rail_electric rail_fast ship container cable_car subway aircraft wheelchair scooter drone" speed="27.78" length="0.10" shape="7536.25,3056.88 7536.25,3056.88"/>
    </edge>
    <edge id=":11133373457_2" function="internal">
        <lane id=":11133373457_2_0" index="0" disallow="tram rail_urban rail rail_electric rail_fast ship container cable_car subway aircraft wheelchair scooter drone" speed="27.78" length="0.10" shape="7529.89,3056.13 7529.89,3056.13"/>
        <lane id=":11133373457_2_1" index="1" disallow="tram rail_urban rail rail_electric rail_fast ship container cable_car subway aircraft wheelchair scooter drone" speed="27.78" length="0.10" shape="7533.07,3056.50 7533.07,3056.50"/>
    </edge>
    <edge id=":11133373458_0" function="internal">
        <lane id=":11133373458_0_0" index="0" disallow="tram rail_urban rail rail_electric rail_fast ship container cable_car subway aircraft wheelchair scooter drone" speed="13.89" length="9.40" shape="7849.30,2874.71 7848.28,2884.05"/>
    </edge>
    <edge id=":11133373458_1" function="internal">
        <lane id=":11133373458_1_0" index="0" allow="pedestrian delivery bicycle" speed="6.07" length="7.78" shape="7849.30,2874.71 7848.81,2877.43 7848.01,2879.32 7846.91,2880.39 7845.50,2880.62"/>
    </edge>
    <edge id=":11133373458_2" function="internal">
        <lane id=":11133373458_2_0" index="0" allow="pedestrian delivery bicycle" speed="6.10" length="7.77" shape="7845.87,2877.44 7847.18,2877.99 7848.02,2879.27 7848.39,2881.29 7848.28,2884.05"/>
    </edge>
    <edge id=":11133373458_3" function="internal">
        <lane id=":11133373458_3_0" index="0" allow="pedestrian delivery bicycle" speed="3.65" length="4.67" shape="7845.87,2877.44 7846.97,2878.37 7847.28,2879.21 7846.79,2879.96 7845.50,2880.62"/>
    </edge>
    <edge id=":11243015415_0" function="internal">
        <lane id=":11243015415_0_0" index="0" allow="pedestrian delivery bicycle" speed="6.10" length="7.77" shape="7837.95,2879.74 7836.65,2879.19 7835.81,2877.91 7835.45,2875.89 7835.55,2873.13"/>
    </edge>
    <edge id=":11243015415_1" function="internal">
        <lane id=":11243015415_1_0" index="0" allow="pedestrian delivery bicycle" speed="3.65" length="4.67" shape="7837.95,2879.74 7836.85,2878.81 7836.55,2877.97 7837.04,2877.22 7838.33,2876.56"/>
    </edge>
    <edge id=":11243015415_2" function="internal">
        <lane id=":11243015415_2_0" index="0" disallow="tram rail_urban rail rail_electric rail_fast ship container cable_car subway aircraft wheelchair scooter drone" speed="13.89" length="9.40" shape="7834.52,2882.47 7835.55,2873.13"/>
    </edge>
    <edge id=":11243015415_3" function="internal">
        <lane id=":11243015415_3_0" index="0" allow="pedestrian delivery bicycle" speed="6.07" length="7.77" shape="7834.52,2882.47 7835.02,2879.75 7835.82,2877.86 7836.92,2876.80 7838.33,2876.56"/>
    </edge>
    <edge id=":11434334029_0" function="internal">
        <lane id=":11434334029_0_0" index="0" allow="pedestrian delivery bicycle" speed="3.65" length="4.67" shape="7280.07,2943.59 7281.00,2942.50 7281.85,2942.19 7282.59,2942.68 7283.25,2943.97"/>
    </edge>
    <edge id=":11549113529_0" function="internal">
        <lane id=":11549113529_0_0" index="0" disallow="tram rail_urban rail rail_electric rail_fast ship container cable_car subway aircraft wheelchair scooter drone" speed="22.22" length="0.10" shape="7798.57,3264.00 7798.57,3264.00"/>
    </edge>
    <edge id=":11549113529_1" function="internal">
        <lane id=":11549113529_1_0" index="0" disallow="tram rail_urban rail rail_electric rail_fast ship container cable_car subway aircraft wheelchair scooter drone" speed="22.22" length="0.10" shape="7795.39,3263.62 7795.39,3263.62"/>
    </edge>
    <edge id=":11549113535_0" function="internal">
        <lane id=":11549113535_0_0" index="0" disallow="tram rail_urban rail rail_electric rail_fast ship container cable_car subway aircraft wheelchair scooter drone" speed="22.22" length="0.28" shape="7795.74,3286.76 7795.70,3287.03"/>
    </edge>
    <edge id=":11549113535_1" function="internal">
        <lane id=":11549113535_1_0" index="0" disallow="tram rail_urban rail rail_electric rail_fast ship container cable_car subway aircraft wheelchair scooter drone" speed="22.22" length="0.31" shape="7792.52,3286.66 7792.56,3286.35"/>
    </edge>
    <edge id=":11549113544_0" function="internal">
        <lane id=":11549113544_0_0" index="0" disallow="tram rail_urban rail rail_electric rail_fast ship container cable_car subway aircraft wheelchair scooter drone" speed="27.78" length="0.30" shape="7518.88,3232.42 7518.85,3232.71"/>
        <lane id=":11549113544_0_1" index="1" disallow="tram rail_urban rail rail_electric rail_fast ship container cable_car subway aircraft wheelchair scooter drone" speed="27.78" length="0.30" shape="7515.71,3232.05 7515.67,3232.34"/>
    </edge>
    <edge id=":11549113544_2" function="internal">
        <lane id=":11549113544_2_0" index="0" disallow="tram rail_urban rail rail_electric rail_fast ship container cable_car subway aircraft wheelchair scooter drone" speed="27.78" length="0.30" shape="7509.31,3231.60 7509.35,3231.30"/>
        <lane id=":11549113544_2_1" index="1" disallow="tram rail_urban rail rail_electric rail_fast ship container cable_car subway aircraft wheelchair scooter drone" speed="27.78" length="0.30" shape="7512.49,3231.97 7512.53,3231.67"/>
    </edge>
    <edge id=":11817664443_0" function="internal">
        <lane id=":11817664443_0_0" index="0" disallow="tram rail_urban rail rail_electric rail_fast ship container cable_car subway aircraft wheelchair scooter drone" speed="16.67" length="0.10" shape="7075.65,2928.22 7075.65,2928.22"/>
        <lane id=":11817664443_0_1" index="1" disallow="tram rail_urban rail rail_electric rail_fast ship container cable_car subway aircraft wheelchair scooter drone" speed="16.67" length="0.10" shape="7075.33,2931.41 7075.33,2931.41"/>
        <lane id=":11817664443_0_2" index="2" disallow="tram rail_urban rail rail_electric rail_fast ship container cable_car subway aircraft wheelchair scooter drone" speed="16.67" length="0.10" shape="7075.01,2934.59 7075.01,2934.59"/>
        <lane id=":11817664443_0_3" index="3" disallow="tram rail_urban rail rail_electric rail_fast ship container cable_car subway aircraft wheelchair scooter drone" speed="16.67" length="0.10" shape="7074.69,2937.78 7074.69,2937.78"/>
    </edge>
    <edge id=":11817664451_0" function="internal">
        <lane id=":11817664451_0_0" index="0" disallow="tram rail_urban rail rail_electric rail_fast ship container cable_car subway aircraft wheelchair scooter drone" speed="16.67" length="0.30" shape="6956.09,2914.88 6956.37,2914.91"/>
        <lane id=":11817664451_0_1" index="1" disallow="tram rail_urban rail rail_electric rail_fast ship container cable_car subway aircraft wheelchair scooter drone" speed="16.67" length="0.30" shape="6955.70,2918.05 6956.00,2918.09"/>
        <lane id=":11817664451_0_2" index="2" disallow="tram rail_urban rail rail_electric rail_fast ship container cable_car subway aircraft wheelchair scooter drone" speed="16.67" length="0.30" shape="6955.32,2921.23 6955.62,2921.27"/>
        <lane id=":11817664451_0_3" index="3" disallow="tram rail_urban rail rail_electric rail_fast ship container cable_car subway aircraft wheelchair scooter drone" speed="16.67" length="0.30" shape="6954.93,2924.41 6955.24,2924.44"/>
    </edge>
    <edge id=":11862391610_0" function="internal">
        <lane id=":11862391610_0_0" index="0" disallow="tram rail_urban rail rail_electric rail_fast ship container cable_car subway aircraft wheelchair scooter drone" speed="22.22" length="0.30" shape="7772.83,3480.08 7772.79,3480.38"/>
    </edge>
    <edge id=":11862391610_1" function="internal">
        <lane id=":11862391610_1_0" index="0" disallow="tram rail_urban rail rail_electric rail_fast ship container cable_car subway aircraft wheelchair scooter drone" speed="22.22" length="0.29" shape="7769.61,3480.00 7769.65,3479.70"/>
    </edge>
    <edge id=":12119845966_0" function="internal">
        <lane id=":12119845966_0_0" index="0" disallow="tram rail_urban rail rail_electric rail_fast ship container cable_car subway aircraft wheelchair scooter drone" speed="16.67" length="0.30" shape="8377.67,3106.22 8377.37,3106.18"/>
        <lane id=":12119845966_0_1" index="1" disallow="tram rail_urban rail rail_electric rail_fast ship container cable_car subway aircraft wheelchair scooter drone" speed="16.67" length="0.30" shape="8378.04,3103.04 8377.74,3103.00"/>
        <lane id=":12119845966_0_2" index="2" disallow="tram rail_urban rail rail_electric rail_fast ship container cable_car subway aircraft wheelchair scooter drone" speed="16.67" length="0.30" shape="8378.40,3099.86 8378.10,3099.82"/>
        <lane id=":12119845966_0_3" index="3" disallow="tram rail_urban rail rail_electric rail_fast ship container cable_car subway aircraft wheelchair scooter drone" speed="16.67" length="0.30" shape="8378.77,3096.68 8378.47,3096.64"/>
    </edge>
    <edge id=":12152190789_0" function="internal">
        <lane id=":12152190789_0_0" index="0" disallow="tram rail_urban rail rail_electric rail_fast ship container cable_car subway aircraft wheelchair scooter drone" speed="16.67" length="0.30" shape="7241.00,2970.71 7240.69,2970.67"/>
        <lane id=":12152190789_0_1" index="1" disallow="tram rail_urban rail rail_electric rail_fast ship container cable_car subway aircraft wheelchair scooter drone" speed="16.67" length="0.30" shape="7241.37,2967.53 7241.06,2967.49"/>
        <lane id=":12152190789_0_2" index="2" disallow="tram rail_urban rail rail_electric rail_fast ship container cable_car subway aircraft wheelchair scooter drone" speed="16.67" length="0.30" shape="7241.73,2964.35 7241.44,2964.31"/>
        <lane id=":12152190789_0_3" index="3" disallow="tram rail_urban rail rail_electric rail_fast ship container cable_car subway aircraft wheelchair scooter drone" speed="16.67" length="0.30" shape="7242.09,2961.17 7241.82,2961.14"/>
    </edge>
    <edge id=":12152195276_0" function="internal">
        <lane id=":12152195276_0_0" index="0" disallow="tram rail_urban rail rail_electric rail_fast ship container cable_car subway aircraft wheelchair scooter drone" speed="16.67" length="0.35" shape="8434.40,2669.75 8434.02,2669.71"/>
        <lane id=":12152195276_0_1" index="1" disallow="tram rail_urban rail rail_electric rail_fast ship container cable_car subway aircraft wheelchair scooter drone" speed="16.67" length="0.35" shape="8434.74,2666.57 8434.40,2666.53"/>
    </edge>
    <edge id=":12152195276_2" function="internal">
        <lane id=":12152195276_2_0" index="0" disallow="tram rail_urban rail rail_electric rail_fast ship container cable_car subway aircraft wheelchair scooter drone" speed="16.67" length="0.25" shape="8435.55,2657.00 8435.75,2657.02"/>
        <lane id=":12152195276_2_1" index="1" disallow="tram rail_urban rail rail_electric rail_fast ship container cable_car subway aircraft wheelchair scooter drone" speed="16.67" length="0.25" shape="8435.17,2660.18 8435.41,2660.20"/>
        <lane id=":12152195276_2_2" index="2" disallow="tram rail_urban rail rail_electric rail_fast ship container cable_car subway aircraft wheelchair scooter drone" speed="16.67" length="0.25" shape="8434.79,2663.35 8435.08,2663.39"/>
    </edge>
    <edge id=":12152195283_0" function="internal">
        <lane id=":12152195283_0_0" index="0" disallow="tram rail_urban rail rail_electric rail_fast ship container cable_car subway aircraft wheelchair scooter drone" speed="16.67" length="0.32" shape="8463.26,2673.04 8462.94,2673.00"/>
        <lane id=":12152195283_0_1" index="1" disallow="tram rail_urban rail rail_electric rail_fast ship container cable_car subway aircraft wheelchair scooter drone" speed="16.67" length="0.32" shape="8463.63,2669.86 8463.32,2669.82"/>
    </edge>
    <edge id=":12152195283_2" function="internal">
        <lane id=":12152195283_2_0" index="0" disallow="tram rail_urban rail rail_electric rail_fast ship container cable_car subway aircraft wheelchair scooter drone" speed="16.67" length="0.29" shape="8464.46,2660.29 8464.73,2660.32"/>
        <lane id=":12152195283_2_1" index="1" disallow="tram rail_urban rail rail_electric rail_fast ship container cable_car subway aircraft wheelchair scooter drone" speed="16.67" length="0.29" shape="8464.08,2663.47 8464.36,2663.50"/>
        <lane id=":12152195283_2_2" index="2" disallow="tram rail_urban rail rail_electric rail_fast ship container cable_car subway aircraft wheelchair scooter drone" speed="16.67" length="0.29" shape="8463.70,2666.64 8464.00,2666.68"/>
    </edge>
    <edge id=":12168327797_0" function="internal">
        <lane id=":12168327797_0_0" index="0" allow="pedestrian delivery bicycle" speed="5.56" length="3.00" shape="7241.31,2916.78 7240.97,2919.76"/>
    </edge>
    <edge id=":12168327797_1" function="internal">
        <lane id=":12168327797_1_0" index="0" allow="pedestrian delivery bicycle" speed="3.65" length="4.67" shape="7237.79,2919.38 7238.73,2918.28 7239.57,2917.98 7240.32,2918.47 7240.97,2919.76"/>
    </edge>
    <edge id=":12311417245_0" function="internal">
        <lane id=":12311417245_0_0" index="0" disallow="tram rail_urban rail rail_electric rail_fast ship container cable_car subway aircraft wheelchair scooter drone" speed="27.78" length="0.10" shape="8204.71,3060.03 8204.71,3060.03"/>
        <lane id=":12311417245_0_1" index="1" disallow="tram rail_urban rail rail_electric rail_fast ship container cable_car subway aircraft wheelchair scooter drone" speed="27.78" length="0.10" shape="8204.32,3063.20 8204.32,3063.20"/>
        <lane id=":12311417245_0_2" index="2" disallow="tram rail_urban rail rail_electric rail_fast ship container cable_car subway aircraft wheelchair scooter drone" speed="27.78" length="0.10" shape="8203.94,3066.38 8203.94,3066.38"/>
        <lane id=":12311417245_0_3" index="3" disallow="tram rail_urban rail rail_electric rail_fast ship container cable_car subway aircraft wheelchair scooter drone" speed="27.78" length="0.10" shape="8203.55,3069.55 8203.55,3069.55"/>
    </edge>
    <edge id=":12415090616_0" function="internal">
        <lane id=":12415090616_0_0" index="0" disallow="tram rail_urban rail rail_electric rail_fast ship container cable_car subway aircraft wheelchair scooter drone" speed="22.22" length="0.30" shape="7753.43,3639.68 7753.39,3639.98"/>
    </edge>
    <edge id=":12415090616_1" function="internal">
        <lane id=":12415090616_1_0" index="0" disallow="tram rail_urban rail rail_electric rail_fast ship container cable_car subway aircraft wheelchair scooter drone" speed="22.22" length="0.30" shape="7750.21,3639.60 7750.25,3639.30"/>
    </edge>
    <edge id=":12463188476_0" function="internal">
        <lane id=":12463188476_0_0" index="0" disallow="tram rail_urban rail rail_electric rail_fast ship container cable_car subway aircraft wheelchair scooter drone" speed="3.65" length="4.67" shape="8100.73,3158.95 8099.82,3160.06 8098.98,3160.38 8098.22,3159.90 8097.55,3158.63"/>
    </edge>
    <edge id=":12953594056_0" function="internal">
        <lane id=":12953594056_0_0" index="0" disallow="tram rail_urban rail rail_electric rail_fast ship container cable_car subway aircraft wheelchair scooter drone" speed="16.67" length="8.58" shape="7747.12,2591.17 7744.59,2591.39 7742.91,2592.31 7741.23,2593.21 7738.70,2593.39"/>
        <lane id=":12953594056_0_1" index="1" disallow="tram rail_urban rail rail_electric rail_fast ship container cable_car subway aircraft wheelchair scooter drone" speed="16.67" length="8.58" shape="7747.47,2587.99 7744.95,2588.21 7743.29,2589.13 7741.62,2590.03 7739.11,2590.21"/>
        <lane id=":12953594056_0_2" index="2" disallow="tram rail_urban rail rail_electric rail_fast ship container cable_car subway aircraft wheelchair scooter drone" speed="16.67" length="8.58" shape="7747.47,2587.99 7739.51,2587.04"/>
    </edge>
    <edge id=":12953594056_3" function="internal">
        <lane id=":12953594056_3_0" index="0" disallow="tram rail_urban rail rail_electric rail_fast ship container cable_car subway aircraft wheelchair scooter drone" speed="16.67" length="8.46" shape="7740.32,2580.69 7742.79,2580.50 7744.42,2579.59 7746.05,2578.67 7748.52,2578.44"/>
        <lane id=":12953594056_3_1" index="1" disallow="tram rail_urban rail rail_electric rail_fast ship container cable_car subway aircraft wheelchair scooter drone" speed="16.67" length="8.46" shape="7739.92,2583.87 7742.40,2583.68 7744.04,2582.77 7745.68,2581.85 7748.17,2581.62"/>
        <lane id=":12953594056_3_2" index="2" disallow="tram rail_urban rail rail_electric rail_fast ship container cable_car subway aircraft wheelchair scooter drone" speed="16.67" length="8.46" shape="7739.92,2583.87 7747.82,2584.80"/>
    </edge>
    <edge id=":13013716731_0" function="internal">
        <lane id=":13013716731_0_0" index="0" disallow="tram rail_urban rail rail_electric rail_fast ship container cable_car subway aircraft wheelchair scooter drone" speed="16.67" length="0.30" shape="7724.19,2591.53 7723.89,2591.50"/>
        <lane id=":13013716731_0_1" index="1" disallow="tram rail_urban rail rail_electric rail_fast ship container cable_car subway aircraft wheelchair scooter drone" speed="16.67" length="0.30" shape="7724.59,2588.36 7724.30,2588.32"/>
        <lane id=":13013716731_0_2" index="2" disallow="tram rail_urban rail rail_electric rail_fast ship container cable_car subway aircraft wheelchair scooter drone" speed="16.67" length="0.30" shape="7725.00,2585.19 7724.70,2585.15"/>
    </edge>
    <edge id=":13013716731_3" function="internal">
        <lane id=":13013716731_3_0" index="0" disallow="tram rail_urban rail rail_electric rail_fast ship container cable_car subway aircraft wheelchair scooter drone" speed="16.67" length="0.30" shape="7725.51,2578.80 7725.81,2578.84"/>
        <lane id=":13013716731_3_1" index="1" disallow="tram rail_urban rail rail_electric rail_fast ship container cable_car subway aircraft wheelchair scooter drone" speed="16.67" length="0.30" shape="7725.10,2581.97 7725.40,2582.01"/>
    </edge>
    <edge id=":13040444534_0" function="internal">
        <lane id=":13040444534_0_0" index="0" disallow="tram rail_urban rail rail_electric rail_fast ship container cable_car subway aircraft wheelchair scooter drone" speed="27.78" length="0.30" shape="8120.76,2985.68 8120.73,2985.98"/>
        <lane id=":13040444534_0_1" index="1" disallow="tram rail_urban rail rail_electric rail_fast ship container cable_car subway aircraft wheelchair scooter drone" speed="27.78" length="0.30" shape="8117.58,2985.38 8117.55,2985.68"/>
    </edge>
    <edge id=":13040444534_2" function="internal">
        <lane id=":13040444534_2_0" index="0" disallow="tram rail_urban rail rail_electric rail_fast ship container cable_car subway aircraft wheelchair scooter drone" speed="27.78" length="0.30" shape="8107.99,2984.77 8108.02,2984.48"/>
        <lane id=":13040444534_2_1" index="1" disallow="tram rail_urban rail rail_electric rail_fast ship container cable_car subway aircraft wheelchair scooter drone" speed="27.78" length="0.30" shape="8111.18,2985.08 8111.21,2984.78"/>
        <lane id=":13040444534_2_2" index="2" disallow="tram rail_urban rail rail_electric rail_fast ship container cable_car subway aircraft wheelchair scooter drone" speed="27.78" length="0.30" shape="8114.36,2985.38 8114.39,2985.08"/>
    </edge>
    <edge id=":13059007541_0" function="internal">
        <lane id=":13059007541_0_0" index="0" disallow="tram rail_urban rail rail_electric rail_fast ship container cable_car subway aircraft wheelchair scooter drone" speed="16.67" length="0.15" shape="8297.64,2653.51 8297.49,2653.49"/>
        <lane id=":13059007541_0_1" index="1" disallow="tram rail_urban rail rail_electric rail_fast ship container cable_car subway aircraft wheelchair scooter drone" speed="16.67" length="0.15" shape="8298.01,2650.33 8297.86,2650.31"/>
    </edge>
    <edge id=":13059007541_2" function="internal">
        <lane id=":13059007541_2_0" index="0" disallow="tram rail_urban rail rail_electric rail_fast ship container cable_car subway aircraft wheelchair scooter drone" speed="16.67" length="0.15" shape="8298.99,2640.78 8299.13,2640.79"/>
        <lane id=":13059007541_2_1" index="1" disallow="tram rail_urban rail rail_electric rail_fast ship container cable_car subway aircraft wheelchair scooter drone" speed="16.67" length="0.15" shape="8298.61,2643.96 8298.76,2643.97"/>
        <lane id=":13059007541_2_2" index="2" disallow="tram rail_urban rail rail_electric rail_fast ship container cable_car subway aircraft wheelchair scooter drone" speed="16.67" length="0.15" shape="8298.24,2647.13 8298.39,2647.15"/>
    </edge>
    <edge id=":13351511843_0" function="internal">
        <lane id=":13351511843_0_0" index="0" disallow="tram rail_urban rail rail_electric rail_fast ship container cable_car subway aircraft wheelchair scooter drone" speed="16.67" length="0.30" shape="7801.60,2597.17 7801.30,2597.13"/>
        <lane id=":13351511843_0_1" index="1" disallow="tram rail_urban rail rail_electric rail_fast ship container cable_car subway aircraft wheelchair scooter drone" speed="16.67" length="0.30" shape="7801.95,2593.99 7801.65,2593.95"/>
    </edge>
    <edge id=":13351511843_2" function="internal">
        <lane id=":13351511843_2_0" index="0" disallow="tram rail_urban rail rail_electric rail_fast ship container cable_car subway aircraft wheelchair scooter drone" speed="16.67" length="0.30" shape="7802.71,2584.41 7803.01,2584.44"/>
        <lane id=":13351511843_2_1" index="1" disallow="tram rail_urban rail rail_electric rail_fast ship container cable_car subway aircraft wheelchair scooter drone" speed="16.67" length="0.30" shape="7802.36,2587.59 7802.66,2587.63"/>
        <lane id=":13351511843_2_2" index="2" disallow="tram rail_urban rail rail_electric rail_fast ship container cable_car subway aircraft wheelchair scooter drone" speed="16.67" length="0.30" shape="7802.01,2590.77 7802.30,2590.81"/>
    </edge>
    <edge id=":13351511966_0" function="internal">
        <lane id=":13351511966_0_0" index="0" disallow="tram rail_urban rail rail_electric rail_fast ship container cable_car subway aircraft wheelchair scooter drone" speed="16.67" length="0.21" shape="7896.88,2610.95 7896.73,2610.93"/>
        <lane id=":13351511966_0_1" index="1" disallow="tram rail_urban rail rail_electric rail_fast ship container cable_car subway aircraft wheelchair scooter drone" speed="16.67" length="0.21" shape="7897.28,2607.77 7897.07,2607.75"/>
        <lane id=":13351511966_0_2" index="2" disallow="tram rail_urban rail rail_electric rail_fast ship container cable_car subway aircraft wheelchair scooter drone" speed="16.67" length="0.21" shape="7897.68,2604.60 7897.41,2604.56"/>
    </edge>
    <edge id=":13351511966_3" function="internal">